*NODE, NSET = DELNODES
1,  -6.33286,  1.43994,  1.70266
2,  -6.6585,  1.23608,  2.30916
3,  -7.07437,  1.00734,  3.34171
4,  -7.30955,  0.958708,  4.77628
5,  -7.06301,  1.399,  6.38526
6,  -6.45446,  2.09534,  7.91101
7,  -5.95298,  2.49398,  9.67725
8,  -5.55885,  1.17331,  1.26238
9,  -5.6807,  0.563895,  1.95115
10,  -5.98868,  -0.0488785,  3.0355
11,  -6.16403,  -0.228675,  4.75023
12,  -5.79875,  0.472352,  6.44002
13,  -5.37686,  1.29309,  7.95448
14,  -5.05509,  1.76288,  9.70368
15,  -4.1339,  1.04231,  0.835839
16,  -4.09797,  0.17548,  1.58889
17,  -4.06607,  -0.544073,  2.8868
18,  -4.03638,  -0.485466,  4.67939
19,  -3.99792,  0.282036,  6.25998
20,  -3.84618,  0.930246,  7.87647
** ... 1212 like lines cut
*ELEMENT, TYPE = C3D8,ELSET = DELELEMENTS
1,  1,  2,  9,  8,  57,  58,  65,  64
2,  2,  3,  10,  9,  58,  59,  66,  65
3,  3,  4,  11,  10,  59,  60,  67,  66
4,  4,  5,  12,  11,  60,  61,  68,  67
5,  5,  6,  13,  12,  61,  62,  69,  68
6,  6,  7,  14,  13,  62,  63,  70,  69
7,  8,  9,  16,  15,  64,  65,  72,  71
8,  9,  10,  17,  16,  65,  66,  73,  72
9,  10,  11,  18,  17,  66,  67,  74,  73
10,  11,  12,  19,  18,  67,  68,  75,  74
11,  12,  13,  20,  19,  68,  69,  76,  75
12,  13,  14,  21,  20,  69,  70,  77,  76
13,  15,  16,  23,  22,  71,  72,  79,  78
14,  16,  17,  24,  23,  72,  73,  80,  79
15,  17,  18,  25,  24,  73,  74,  81,  80
16,  18,  19,  26,  25,  74,  75,  82,  81
17,  19,  20,  27,  26,  75,  76,  83,  82
18,  20,  21,  28,  27,  76,  77,  84,  83
19,  22,  23,  30,  29,  78,  79,  86,  85
20,  23,  24,  31,  30,  79,  80,  87,  86
** ... 862 like lines cut
*NSET,NSET = BNODES
1
8
15
22
29
36
43
50
57
64
71
78
85
92
99
106
113
120
127
134
** ... 36 like lines cut
*NSET, NSET = FNODES
992
987
982
977
972
967
962
1032
1027
1022
1017
1012
1007
1002
1072
1067
1062
1057
1052
1047
** ... 29 like lines cut
**
*SOLID SECTION, ELSET=DELELEMENTS, MATERIAL=BONE
*MATERIAL, NAME = BONE
*ELASTIC
1E09,0.3
**
**BOUNDARY CONDITIONS
*STEP, NLGEOM = YES, UNSYMM=YES, INC = 1000
*STATIC
1.0,1.0
*BOUNDARY, TYPE=VELOCITY, OP=NEW
BNODES,1,3,0.0
*CLOAD, OP=NEW
FNODES,1,0.0
FNODES,2,0.0
FNODES,3,-100
*END STEP






